/*--------------------------------*- C++ -*----------------------------------*\
| =========                 |                                                 |
| \\      /  F ield         | OpenFOAM: The Open Source CFD Toolbox           |
|  \\    /   O peration     | Version:  v2012                                 |
|   \\  /    A nd           | Website:  www.openfoam.com                      |
|    \\/     M anipulation  |                                                 |
\*---------------------------------------------------------------------------*/
FoamFile
{
    version     2.0;
    format      ascii;
    class       dictionary;
    object      blockMeshDict;
}

// * * * * * * * * * * * * * * * * * * * * * * * * * * * * * * * * * * * * * //

scale   0.001;
//Bounding Box : (-20.5 -45.4 3) (99.5 93.9068 134.8)

vertices
(
    (-22 -48 0) // Vetrex0
    (102 -48 0) // Vetrex1
    (102 96 0) // Vetrex2
    (-22 96 0) // Vetrex3
    (-22 -48 137) // Vetrex0
    (102 -48 137) // Vetrex1
    (102 96 137) // Vetrex2
    (-22 96 137) // Vetrex3
);

blocks
(
    hex (0 1 2 3 4 5 6 7) (93 108 102) simpleGrading (1 1 1)
    // ( 1 ((0.5 0.5 10) (0.5 0.5 1)) 1)
    // Linear refinement 1.26 - 2 (1.26 for Engg, 2 for scientific)

);

edges
(
);

boundary
(

);

// ************************************************************************* //
